data_example
_audit_creation_date 2024-06-19
_audit_creation_method 'manual entry'

_cell_length_a 3.986
_cell_length_b 3.986
_cell_length_c 3.986
_cell_angle_alpha 90.000
_cell_angle_beta 90.000
_cell_angle_gamma 90.000

_symmetry_space_group_name_H-M 'P 4 2 3'
_symmetry_Int_tables_number 221

loop_
_symmetry_equiv_pos_site_id
_symmetry_equiv_pos_as_xyz
1  'x,y,z'
2  'x,-y,-z'
3  'x,-y,z'


loop_
_atom_site_label
_atom_site_type_symbol
_atom_site_symmetry_multiplicity
_atom_site_fract_x
_atom_site_fract_y
_atom_site_fract_z
_atom_site_U_iso_or_equiv
_atom_site_occupancy
Sr1 Sr 1 0.50000 0.50000 0.50000 0.01925 1.00000
O1 O 3 0.50000 0.00000 0.00000 0.03166 1.00000
Fe1 Fe 1 0.00000 0.00000 0.00000 0.01089 0.50000
Nb1 Nb 1 0.00000 0.00000 0.00000 0.01089 0.50000
